Version 4
SHEET 1 2504 680
WIRE 1248 -304 1168 -304
WIRE 1248 -288 1248 -304
WIRE 1344 -144 1200 -144
WIRE 896 -112 688 -112
WIRE 1440 -96 1392 -96
WIRE 1536 -96 1504 -96
WIRE 400 -64 176 -64
WIRE 896 -64 896 -112
WIRE 1168 -48 1168 -304
WIRE 1200 -48 1200 -144
WIRE 1536 -48 1536 -96
WIRE 1536 -48 1232 -48
WIRE 992 -16 944 -16
WIRE 1136 -16 1056 -16
WIRE 176 16 176 -64
WIRE 176 16 80 16
WIRE 256 16 176 16
WIRE 1360 16 1264 16
WIRE 1616 16 1424 16
WIRE 80 32 80 16
WIRE 256 32 256 16
WIRE 992 48 992 -16
WIRE 1136 48 992 48
WIRE 1616 48 1616 16
WIRE 256 144 256 112
WIRE 288 144 256 144
WIRE 368 144 288 144
WIRE 512 144 432 144
WIRE 560 144 512 144
WIRE 688 144 688 -112
WIRE 688 144 560 144
WIRE 896 160 896 16
WIRE 1056 160 1056 -16
WIRE 1056 160 896 160
WIRE 1168 160 1168 80
WIRE 1168 160 1056 160
WIRE 1216 160 1216 144
WIRE 1216 160 1168 160
WIRE 1616 160 1616 128
WIRE 1616 160 1216 160
WIRE 256 176 256 144
WIRE -80 224 -176 224
WIRE 80 224 80 112
WIRE 80 224 -16 224
WIRE 144 224 80 224
WIRE 192 224 144 224
WIRE 560 224 560 144
WIRE 688 224 688 144
WIRE -176 304 -176 224
WIRE 256 304 256 272
WIRE 384 304 256 304
WIRE 560 304 560 288
WIRE 80 336 80 224
WIRE 256 336 256 304
WIRE 384 352 384 304
WIRE -176 448 -176 384
WIRE 80 448 80 416
WIRE 80 448 -176 448
WIRE 160 448 80 448
WIRE 256 448 256 416
WIRE 256 448 160 448
WIRE 384 448 384 416
WIRE 384 448 256 448
WIRE 560 448 560 368
WIRE 560 448 384 448
WIRE 688 448 688 288
WIRE 688 448 560 448
WIRE 160 480 160 448
FLAG 160 480 0
FLAG 400 16 0
FLAG 288 144 Vc
FLAG 144 224 Vb
FLAG -176 224 Vin
FLAG 512 144 Vout
FLAG 1248 -208 0
FLAG 1616 16 LM386_VOUT
SYMBOL npn 192 176 R0
SYMATTR InstName Q1
SYMATTR Value 2N3904
SYMBOL res 240 16 R0
SYMATTR InstName R1
SYMATTR Value 2.2K
SYMBOL res 240 320 R0
SYMATTR InstName R2
SYMATTR Value 440
SYMBOL res 64 320 R0
SYMATTR InstName R3
SYMATTR Value 10K
SYMBOL res 64 16 R0
SYMATTR InstName R4
SYMATTR Value 45K
SYMBOL cap -16 208 R90
WINDOW 0 0 32 VBottom 2
WINDOW 3 32 32 VTop 2
SYMATTR InstName C1
SYMATTR Value 0.82µ
SYMBOL cap 432 128 R90
WINDOW 0 0 32 VBottom 2
WINDOW 3 32 32 VTop 2
SYMATTR InstName C2
SYMATTR Value 1.5µ
SYMBOL voltage -176 288 R0
WINDOW 3 -176 244 Left 2
WINDOW 123 0 0 Left 0
WINDOW 39 0 0 Left 0
SYMATTR Value wavefile="raw-samples/acoustic-guitar-91bpm.wav"
SYMATTR InstName V1
SYMBOL voltage 400 -80 R0
WINDOW 123 0 0 Left 0
WINDOW 39 0 0 Left 0
SYMATTR InstName V2
SYMATTR Value 9V
SYMBOL diode 544 224 R0
WINDOW 3 -82 67 Left 2
SYMATTR Value 1N4007
SYMATTR InstName D1
SYMBOL diode 704 288 R180
WINDOW 0 24 64 Left 2
WINDOW 3 21 -3 Left 2
SYMATTR InstName D2
SYMATTR Value 1N4007
SYMBOL cap 368 352 R0
SYMATTR InstName C3
SYMATTR Value 220µ
SYMBOL diode 544 304 R0
WINDOW 3 -82 67 Left 2
SYMATTR Value 1N4007
SYMATTR InstName D3
SYMBOL pot 880 -80 R0
WINDOW 3 -15 5 Left 2
SYMATTR Value Rtot=10K wiper=1
SYMATTR InstName U1
SYMBOL voltage 1248 -304 R0
WINDOW 3 -75 60 Left 2
WINDOW 123 0 0 Left 0
WINDOW 39 0 0 Left 0
WINDOW 0 -73 38 Left 2
SYMATTR Value 9
SYMATTR InstName V4
SYMBOL cap 1424 0 R90
WINDOW 0 0 32 VBottom 2
WINDOW 3 32 32 VTop 2
SYMATTR InstName C4
SYMATTR Value 220µ
SYMBOL res 1600 32 R0
SYMATTR InstName R5
SYMATTR Value 8
SYMBOL LM386_TI 1184 -48 R0
WINDOW 38 49 91 Left 2
SYMATTR InstName U2
SYMBOL pot 1328 -160 R0
WINDOW 3 -15 5 Left 2
SYMATTR Value Rtot=10K wiper=1
SYMATTR InstName U3
SYMBOL cap 1504 -112 R90
WINDOW 0 0 32 VBottom 2
WINDOW 3 32 32 VTop 2
SYMATTR InstName C5
SYMATTR Value 10µ
SYMBOL cap 1232 144 R180
WINDOW 0 -35 45 Left 2
WINDOW 3 -39 18 Left 2
SYMATTR InstName C6
SYMATTR Value 10µ
TEXT -360 600 Left 2 !.tran 5
TEXT -360 568 Left 2 !.wave "simulation-output-samples/acoustic-guitar-dist1.wav" 16 44.1K Vout
TEXT -352 504 Left 2 !.include pot.sub
TEXT 1296 -208 Left 2 ;Gain control
TEXT 848 -160 Left 2 ;Volume control
TEXT 480 96 Left 2 ;Assymetrical distortion
RECTANGLE Normal 1568 -32 1296 -192 2
RECTANGLE Normal 976 80 848 -144 2
RECTANGLE Normal 752 512 480 112 2
